* PEX produced on Sen 11 Nov 2024 04:21:00  CST using ./iic-pex.sh with m=3 and s=1
* NGSPICE file created from tt_um_tdc_its.ext - technology: sky130A

.subckt tt_um_tdc_its clk ena rst_n ua[0] ua[1] ua[2] ua[3] ua[4] ua[5] ua[6] ua[7]
+ ui_in[0] ui_in[1] ui_in[2] ui_in[3] ui_in[4] ui_in[5] ui_in[6] ui_in[7] uio_in[0]
+ uio_in[1] uio_in[2] uio_in[3] uio_in[4] uio_in[5] uio_in[6] uio_in[7] uio_oe[0]
+ uio_oe[1] uio_oe[2] uio_oe[3] uio_oe[4] uio_oe[5] uio_oe[6] uio_oe[7] uio_out[0]
+ uio_out[1] uio_out[2] uio_out[3] uio_out[4] uio_out[5] uio_out[6] uio_out[7] uo_out[0]
+ uo_out[1] uo_out[2] uo_out[3] uo_out[4] uo_out[5] uo_out[6] uo_out[7] VDPWR VGND
X0 VDPWR.t8 tdc_0.phase_detector_0.sky130_fd_sc_hd__nand2_1_1.A.t3 uo_out[0].t0 VDPWR.t7 sky130_fd_pr__pfet_01v8_hvt ad=0.26 pd=2.52 as=0.135 ps=1.27 w=1 l=0.15
X1 uo_out[1].t0 tdc_0.phase_detector_0.sky130_fd_sc_hd__nand2_1_0.B.t3 VDPWR.t1 VDPWR.t0 sky130_fd_pr__pfet_01v8_hvt ad=0.135 pd=1.27 as=0.26 ps=2.52 w=1 l=0.15
X2 VGND.t36 tdc_0.sky130_fd_sc_hd__inv_8_0.A.t2 tdc_0.sky130_fd_sc_hd__inv_8_0.Y.t6 VGND.t35 sky130_fd_pr__nfet_01v8 ad=0.08775 pd=0.92 as=0.08775 ps=0.92 w=0.65 l=0.15
X3 tdc_0.sky130_fd_sc_hd__inv_8_0.Y.t14 tdc_0.sky130_fd_sc_hd__inv_8_0.A.t3 VDPWR.t12 VDPWR.t9 sky130_fd_pr__pfet_01v8_hvt ad=0.135 pd=1.27 as=0.135 ps=1.27 w=1 l=0.15
X4 VGND.t38 tdc_0.sky130_fd_sc_hd__inv_8_1.A.t2 tdc_0.sky130_fd_sc_hd__inv_8_1.Y.t7 VGND.t37 sky130_fd_pr__nfet_01v8 ad=0.169 pd=1.82 as=0.08775 ps=0.92 w=0.65 l=0.15
X5 VDPWR.t25 tdc_0.sky130_fd_sc_hd__inv_8_0.A.t4 tdc_0.sky130_fd_sc_hd__inv_8_0.Y.t13 VDPWR.t9 sky130_fd_pr__pfet_01v8_hvt ad=0.135 pd=1.27 as=0.135 ps=1.27 w=1 l=0.15
X6 a_26743_17057.t0 tdc_0.phase_detector_0.sky130_fd_sc_hd__nand2_1_0.B.t4 tdc_0.phase_detector_0.sky130_fd_sc_hd__nand2_1_1.A.t0 VGND.t2 sky130_fd_pr__nfet_01v8 ad=0.29 pd=2.58 as=0.29 ps=2.58 w=1 l=0.15
X7 VDPWR.t36 ua[0].t0 a_25988_7882.t1 VDPWR.t21 sky130_fd_pr__pfet_01v8_lvt ad=1.74 pd=12.58 as=1.74 ps=12.58 w=6 l=15
X8 tdc_0.sky130_fd_sc_hd__inv_8_1.Y.t6 tdc_0.sky130_fd_sc_hd__inv_8_1.A.t3 VGND.t10 VGND.t9 sky130_fd_pr__nfet_01v8 ad=0.08775 pd=0.92 as=0.08775 ps=0.92 w=0.65 l=0.15
X9 a_23058_11167.t1 ua[0].t1 VGND.t12 VGND.t11 sky130_fd_pr__nfet_01v8_lvt ad=0.58 pd=4.58 as=0.58 ps=4.58 w=2 l=15
X10 tdc_0.sky130_fd_sc_hd__inv_8_0.A.t0 a_25891_11454.t2 a_27981_11167.t0 VGND.t13 sky130_fd_pr__nfet_01v8_lvt ad=0.58 pd=4.58 as=0.58 ps=4.58 w=2 l=15
X11 VGND.t43 tdc_0.sky130_fd_sc_hd__inv_8_0.Y.t16 a_26743_17057.t1 VGND.t2 sky130_fd_pr__nfet_01v8 ad=0.29 pd=2.58 as=0.29 ps=2.58 w=1 l=0.15
X12 VGND.t8 tdc_0.sky130_fd_sc_hd__inv_8_1.A.t4 tdc_0.sky130_fd_sc_hd__inv_8_1.Y.t5 VGND.t7 sky130_fd_pr__nfet_01v8 ad=0.08775 pd=0.92 as=0.08775 ps=0.92 w=0.65 l=0.15
X13 tdc_0.sky130_fd_sc_hd__inv_8_1.Y.t15 tdc_0.sky130_fd_sc_hd__inv_8_1.A.t5 VDPWR.t14 VDPWR.t13 sky130_fd_pr__pfet_01v8_hvt ad=0.135 pd=1.27 as=0.135 ps=1.27 w=1 l=0.15
X14 tdc_0.sky130_fd_sc_hd__inv_8_1.Y.t4 tdc_0.sky130_fd_sc_hd__inv_8_1.A.t6 VGND.t42 VGND.t41 sky130_fd_pr__nfet_01v8 ad=0.08775 pd=0.92 as=0.169 ps=1.82 w=0.65 l=0.15
X15 tdc_0.sky130_fd_sc_hd__inv_8_0.Y.t2 tdc_0.sky130_fd_sc_hd__inv_8_0.A.t5 VGND.t34 VGND.t33 sky130_fd_pr__nfet_01v8 ad=0.08775 pd=0.92 as=0.08775 ps=0.92 w=0.65 l=0.15
X16 VDPWR.t27 tdc_0.sky130_fd_sc_hd__inv_8_1.A.t7 tdc_0.sky130_fd_sc_hd__inv_8_1.Y.t14 VDPWR.t13 sky130_fd_pr__pfet_01v8_hvt ad=0.135 pd=1.27 as=0.135 ps=1.27 w=1 l=0.15
X17 tdc_0.phase_detector_0.sky130_fd_sc_hd__nand2_1_1.A.t2 tdc_0.phase_detector_0.sky130_fd_sc_hd__nand2_1_0.B.t5 VDPWR.t20 VDPWR.t4 sky130_fd_pr__pfet_01v8 ad=0.87 pd=6.58 as=0.87 ps=6.58 w=3 l=0.15
X18 VDPWR.t11 tdc_0.sky130_fd_sc_hd__inv_8_0.A.t6 tdc_0.sky130_fd_sc_hd__inv_8_0.Y.t12 VDPWR.t9 sky130_fd_pr__pfet_01v8_hvt ad=0.26 pd=2.52 as=0.135 ps=1.27 w=1 l=0.15
X19 tdc_0.sky130_fd_sc_hd__inv_8_0.A.t1 a_25891_11454.t3 VDPWR.t34 VDPWR.t21 sky130_fd_pr__pfet_01v8_lvt ad=1.74 pd=12.58 as=1.74 ps=12.58 w=6 l=15
X20 a_25914_16928.t0 uo_out[1].t3 VGND.t4 VGND.t3 sky130_fd_pr__nfet_01v8 ad=0.08775 pd=0.92 as=0.169 ps=1.82 w=0.65 l=0.15
X21 VGND.t32 tdc_0.sky130_fd_sc_hd__inv_8_0.A.t7 tdc_0.sky130_fd_sc_hd__inv_8_0.Y.t5 VGND.t31 sky130_fd_pr__nfet_01v8 ad=0.08775 pd=0.92 as=0.08775 ps=0.92 w=0.65 l=0.15
X22 tdc_0.sky130_fd_sc_hd__inv_8_0.Y.t11 tdc_0.sky130_fd_sc_hd__inv_8_0.A.t8 VDPWR.t35 VDPWR.t9 sky130_fd_pr__pfet_01v8_hvt ad=0.135 pd=1.27 as=0.135 ps=1.27 w=1 l=0.15
X23 tdc_0.sky130_fd_sc_hd__inv_8_1.Y.t3 tdc_0.sky130_fd_sc_hd__inv_8_1.A.t8 VGND.t19 VGND.t18 sky130_fd_pr__nfet_01v8 ad=0.08775 pd=0.92 as=0.08775 ps=0.92 w=0.65 l=0.15
X24 VGND.t40 tdc_0.sky130_fd_sc_hd__inv_8_1.A.t9 tdc_0.sky130_fd_sc_hd__inv_8_1.Y.t2 VGND.t39 sky130_fd_pr__nfet_01v8 ad=0.08775 pd=0.92 as=0.08775 ps=0.92 w=0.65 l=0.15
X25 VDPWR.t37 tdc_0.sky130_fd_sc_hd__inv_8_0.A.t9 tdc_0.sky130_fd_sc_hd__inv_8_0.Y.t10 VDPWR.t9 sky130_fd_pr__pfet_01v8_hvt ad=0.135 pd=1.27 as=0.135 ps=1.27 w=1 l=0.15
X26 a_25988_7882.t0 clk.t0 a_25891_11454.t1 VDPWR.t21 sky130_fd_pr__pfet_01v8_lvt ad=1.74 pd=12.58 as=1.74 ps=12.58 w=6 l=15
X27 a_24477_17057.t0 tdc_0.phase_detector_0.sky130_fd_sc_hd__nand2_1_1.A.t4 tdc_0.phase_detector_0.sky130_fd_sc_hd__nand2_1_0.B.t0 VGND.t17 sky130_fd_pr__nfet_01v8 ad=0.29 pd=2.58 as=0.29 ps=2.58 w=1 l=0.15
X28 tdc_0.phase_detector_0.sky130_fd_sc_hd__nand2_1_0.B.t1 tdc_0.phase_detector_0.sky130_fd_sc_hd__nand2_1_1.A.t5 VDPWR.t6 VDPWR.t5 sky130_fd_pr__pfet_01v8 ad=0.87 pd=6.58 as=0.87 ps=6.58 w=3 l=0.15
X29 tdc_0.phase_detector_0.sky130_fd_sc_hd__nand2_1_1.A.t1 tdc_0.sky130_fd_sc_hd__inv_8_0.Y.t17 a_26334_16003.t1 VDPWR.t4 sky130_fd_pr__pfet_01v8 ad=0.87 pd=6.58 as=0.87 ps=6.58 w=3 l=0.15
X30 VGND.t15 clk.t1 a_22970_11453.t0 VGND.t11 sky130_fd_pr__nfet_01v8_lvt ad=0.58 pd=4.58 as=0.58 ps=4.58 w=2 l=15
X31 a_27981_11167.t1 ua[1].t0 VGND.t44 VGND.t13 sky130_fd_pr__nfet_01v8_lvt ad=0.58 pd=4.58 as=0.58 ps=4.58 w=2 l=15
X32 tdc_0.sky130_fd_sc_hd__inv_8_0.Y.t9 tdc_0.sky130_fd_sc_hd__inv_8_0.A.t10 VDPWR.t29 VDPWR.t9 sky130_fd_pr__pfet_01v8_hvt ad=0.135 pd=1.27 as=0.26 ps=2.52 w=1 l=0.15
X33 uo_out[1].t1 uo_out[0].t3 a_25456_16928.t1 VGND.t20 sky130_fd_pr__nfet_01v8 ad=0.169 pd=1.82 as=0.08775 ps=0.92 w=0.65 l=0.15
X34 VDPWR.t33 tdc_0.sky130_fd_sc_hd__inv_8_1.A.t10 tdc_0.sky130_fd_sc_hd__inv_8_1.Y.t13 VDPWR.t13 sky130_fd_pr__pfet_01v8_hvt ad=0.26 pd=2.52 as=0.135 ps=1.27 w=1 l=0.15
X35 a_25456_16928.t0 tdc_0.phase_detector_0.sky130_fd_sc_hd__nand2_1_0.B.t6 VGND.t1 VGND.t0 sky130_fd_pr__nfet_01v8 ad=0.08775 pd=0.92 as=0.169 ps=1.82 w=0.65 l=0.15
X36 uo_out[0].t1 tdc_0.phase_detector_0.sky130_fd_sc_hd__nand2_1_1.A.t6 a_25914_16928.t1 VGND.t16 sky130_fd_pr__nfet_01v8 ad=0.169 pd=1.82 as=0.08775 ps=0.92 w=0.65 l=0.15
X37 VDPWR.t3 ua[1].t1 a_24251_7882.t1 VDPWR.t2 sky130_fd_pr__pfet_01v8_lvt ad=1.74 pd=12.58 as=1.74 ps=12.58 w=6 l=15
X38 VGND.t45 tdc_0.sky130_fd_sc_hd__inv_8_1.Y.t16 a_24477_17057.t1 VGND.t17 sky130_fd_pr__nfet_01v8 ad=0.29 pd=2.58 as=0.29 ps=2.58 w=1 l=0.15
X39 tdc_0.phase_detector_0.sky130_fd_sc_hd__nand2_1_0.B.t2 tdc_0.sky130_fd_sc_hd__inv_8_1.Y.t17 a_24486_16003.t0 VDPWR.t5 sky130_fd_pr__pfet_01v8 ad=0.87 pd=6.58 as=0.87 ps=6.58 w=3 l=0.15
X40 a_26334_16003.t0 tdc_0.sky130_fd_sc_hd__inv_8_1.Y.t18 VDPWR.t26 VDPWR.t4 sky130_fd_pr__pfet_01v8 ad=0.87 pd=6.58 as=0.87 ps=6.58 w=3 l=0.15
X41 VGND.t30 tdc_0.sky130_fd_sc_hd__inv_8_0.A.t11 tdc_0.sky130_fd_sc_hd__inv_8_0.Y.t15 VGND.t29 sky130_fd_pr__nfet_01v8 ad=0.169 pd=1.82 as=0.08775 ps=0.92 w=0.65 l=0.15
X42 tdc_0.sky130_fd_sc_hd__inv_8_1.Y.t12 tdc_0.sky130_fd_sc_hd__inv_8_1.A.t11 VDPWR.t32 VDPWR.t13 sky130_fd_pr__pfet_01v8_hvt ad=0.135 pd=1.27 as=0.135 ps=1.27 w=1 l=0.15
X43 tdc_0.sky130_fd_sc_hd__inv_8_0.Y.t1 tdc_0.sky130_fd_sc_hd__inv_8_0.A.t12 VGND.t28 VGND.t27 sky130_fd_pr__nfet_01v8 ad=0.08775 pd=0.92 as=0.08775 ps=0.92 w=0.65 l=0.15
X44 tdc_0.sky130_fd_sc_hd__inv_8_0.Y.t8 tdc_0.sky130_fd_sc_hd__inv_8_0.A.t13 VDPWR.t10 VDPWR.t9 sky130_fd_pr__pfet_01v8_hvt ad=0.135 pd=1.27 as=0.135 ps=1.27 w=1 l=0.15
X45 VDPWR.t30 tdc_0.sky130_fd_sc_hd__inv_8_0.A.t14 tdc_0.sky130_fd_sc_hd__inv_8_0.Y.t7 VDPWR.t9 sky130_fd_pr__pfet_01v8_hvt ad=0.135 pd=1.27 as=0.135 ps=1.27 w=1 l=0.15
X46 VDPWR.t16 tdc_0.sky130_fd_sc_hd__inv_8_1.A.t12 tdc_0.sky130_fd_sc_hd__inv_8_1.Y.t11 VDPWR.t13 sky130_fd_pr__pfet_01v8_hvt ad=0.135 pd=1.27 as=0.135 ps=1.27 w=1 l=0.15
X47 tdc_0.sky130_fd_sc_hd__inv_8_1.A.t0 a_22970_11453.t2 a_23058_11167.t0 VGND.t11 sky130_fd_pr__nfet_01v8_lvt ad=0.58 pd=4.58 as=0.58 ps=4.58 w=2 l=15
X48 VGND.t26 tdc_0.sky130_fd_sc_hd__inv_8_0.A.t15 tdc_0.sky130_fd_sc_hd__inv_8_0.Y.t0 VGND.t25 sky130_fd_pr__nfet_01v8 ad=0.08775 pd=0.92 as=0.08775 ps=0.92 w=0.65 l=0.15
X49 tdc_0.sky130_fd_sc_hd__inv_8_1.Y.t10 tdc_0.sky130_fd_sc_hd__inv_8_1.A.t13 VDPWR.t31 VDPWR.t13 sky130_fd_pr__pfet_01v8_hvt ad=0.135 pd=1.27 as=0.26 ps=2.52 w=1 l=0.15
X50 uo_out[0].t2 uo_out[1].t4 VDPWR.t19 VDPWR.t18 sky130_fd_pr__pfet_01v8_hvt ad=0.135 pd=1.27 as=0.26 ps=2.52 w=1 l=0.15
X51 a_24486_16003.t1 tdc_0.sky130_fd_sc_hd__inv_8_0.Y.t18 VDPWR.t17 VDPWR.t5 sky130_fd_pr__pfet_01v8 ad=0.87 pd=6.58 as=0.87 ps=6.58 w=3 l=0.15
X52 tdc_0.sky130_fd_sc_hd__inv_8_0.Y.t3 tdc_0.sky130_fd_sc_hd__inv_8_0.A.t16 VGND.t24 VGND.t23 sky130_fd_pr__nfet_01v8 ad=0.08775 pd=0.92 as=0.169 ps=1.82 w=0.65 l=0.15
X53 tdc_0.sky130_fd_sc_hd__inv_8_1.Y.t1 tdc_0.sky130_fd_sc_hd__inv_8_1.A.t14 VGND.t6 VGND.t5 sky130_fd_pr__nfet_01v8 ad=0.08775 pd=0.92 as=0.08775 ps=0.92 w=0.65 l=0.15
X54 tdc_0.sky130_fd_sc_hd__inv_8_1.A.t1 a_22970_11453.t3 VDPWR.t28 VDPWR.t2 sky130_fd_pr__pfet_01v8_lvt ad=1.74 pd=12.58 as=1.74 ps=12.58 w=6 l=15
X55 VGND.t47 tdc_0.sky130_fd_sc_hd__inv_8_1.A.t15 tdc_0.sky130_fd_sc_hd__inv_8_1.Y.t0 VGND.t46 sky130_fd_pr__nfet_01v8 ad=0.08775 pd=0.92 as=0.08775 ps=0.92 w=0.65 l=0.15
X56 VGND.t14 clk.t2 a_25891_11454.t0 VGND.t13 sky130_fd_pr__nfet_01v8_lvt ad=0.58 pd=4.58 as=0.58 ps=4.58 w=2 l=15
X57 tdc_0.sky130_fd_sc_hd__inv_8_1.Y.t9 tdc_0.sky130_fd_sc_hd__inv_8_1.A.t16 VDPWR.t22 VDPWR.t13 sky130_fd_pr__pfet_01v8_hvt ad=0.135 pd=1.27 as=0.135 ps=1.27 w=1 l=0.15
X58 VDPWR.t24 uo_out[0].t4 uo_out[1].t2 VDPWR.t23 sky130_fd_pr__pfet_01v8_hvt ad=0.26 pd=2.52 as=0.135 ps=1.27 w=1 l=0.15
X59 tdc_0.sky130_fd_sc_hd__inv_8_0.Y.t4 tdc_0.sky130_fd_sc_hd__inv_8_0.A.t17 VGND.t22 VGND.t21 sky130_fd_pr__nfet_01v8 ad=0.08775 pd=0.92 as=0.08775 ps=0.92 w=0.65 l=0.15
X60 VDPWR.t15 tdc_0.sky130_fd_sc_hd__inv_8_1.A.t17 tdc_0.sky130_fd_sc_hd__inv_8_1.Y.t8 VDPWR.t13 sky130_fd_pr__pfet_01v8_hvt ad=0.135 pd=1.27 as=0.135 ps=1.27 w=1 l=0.15
X61 a_24251_7882.t0 clk.t3 a_22970_11453.t1 VDPWR.t2 sky130_fd_pr__pfet_01v8_lvt ad=1.74 pd=12.58 as=1.74 ps=12.58 w=6 l=15
R0 tdc_0.phase_detector_0.sky130_fd_sc_hd__nand2_1_1.A.n3 tdc_0.phase_detector_0.sky130_fd_sc_hd__nand2_1_1.A.t5 717.817
R1 tdc_0.phase_detector_0.sky130_fd_sc_hd__nand2_1_1.A.n3 tdc_0.phase_detector_0.sky130_fd_sc_hd__nand2_1_1.A.t4 381.747
R2 tdc_0.phase_detector_0.sky130_fd_sc_hd__nand2_1_1.A.n1 tdc_0.phase_detector_0.sky130_fd_sc_hd__nand2_1_1.A.t3 230.155
R3 tdc_0.phase_detector_0.sky130_fd_sc_hd__nand2_1_1.A.n1 tdc_0.phase_detector_0.sky130_fd_sc_hd__nand2_1_1.A.t6 157.856
R4 tdc_0.phase_detector_0.sky130_fd_sc_hd__nand2_1_1.A.n4 tdc_0.phase_detector_0.sky130_fd_sc_hd__nand2_1_1.A.n1 152
R5 tdc_0.phase_detector_0.sky130_fd_sc_hd__nand2_1_1.A.n0 tdc_0.phase_detector_0.sky130_fd_sc_hd__nand2_1_1.A.t1 99.744
R6 tdc_0.phase_detector_0.sky130_fd_sc_hd__nand2_1_1.A.n2 tdc_0.phase_detector_0.sky130_fd_sc_hd__nand2_1_1.A.t2 84.6561
R7 tdc_0.phase_detector_0.sky130_fd_sc_hd__nand2_1_1.A.n2 tdc_0.phase_detector_0.sky130_fd_sc_hd__nand2_1_1.A.t0 84.0933
R8 tdc_0.phase_detector_0.sky130_fd_sc_hd__nand2_1_1.A.n4 tdc_0.phase_detector_0.sky130_fd_sc_hd__nand2_1_1.A.n0 13.8005
R9 tdc_0.phase_detector_0.sky130_fd_sc_hd__nand2_1_1.A.n0 tdc_0.phase_detector_0.sky130_fd_sc_hd__nand2_1_1.A.n3 8.307
R10 tdc_0.phase_detector_0.sky130_fd_sc_hd__nand2_1_1.A.n0 tdc_0.phase_detector_0.sky130_fd_sc_hd__nand2_1_1.A.n2 6.23388
R11 tdc_0.phase_detector_0.sky130_fd_sc_hd__nand2_1_1.A tdc_0.phase_detector_0.sky130_fd_sc_hd__nand2_1_1.A.n4 4.39453
R12 uo_out[0].n6 uo_out[0].t1 271.209
R13 uo_out[0].n5 uo_out[0].t1 258.846
R14 uo_out[0].n1 uo_out[0].t4 230.155
R15 uo_out[0].n3 uo_out[0].n0 193.548
R16 uo_out[0].n1 uo_out[0].t3 157.856
R17 uo_out[0].n2 uo_out[0].n1 152
R18 uo_out[0].n7 uo_out[0] 33.8304
R19 uo_out[0] uo_out[0].n3 31.2308
R20 uo_out[0].n0 uo_out[0].t0 26.5955
R21 uo_out[0].n0 uo_out[0].t2 26.5955
R22 uo_out[0].n3 uo_out[0].n2 23.8989
R23 uo_out[0] uo_out[0].n6 14.2478
R24 uo_out[0].n2 uo_out[0] 4.39453
R25 uo_out[0].n4 uo_out[0] 3.76521
R26 uo_out[0].n5 uo_out[0].n4 3.03935
R27 uo_out[0] uo_out[0].n5 2.30266
R28 uo_out[0].n7 uo_out[0] 1.80364
R29 uo_out[0].n4 uo_out[0] 0.921363
R30 uo_out[0].n6 uo_out[0] 0.829277
R31 uo_out[0] uo_out[0].n7 0.00555051
R32 VDPWR.n170 VDPWR.n8 8442.35
R33 VDPWR.n170 VDPWR.n6 8442.35
R34 VDPWR.n169 VDPWR.n15 8442.35
R35 VDPWR.n169 VDPWR.n16 8442.35
R36 VDPWR.n152 VDPWR.n142 8442.35
R37 VDPWR.n152 VDPWR.n139 8442.35
R38 VDPWR.n26 VDPWR.n25 8442.35
R39 VDPWR.n26 VDPWR.n18 8442.35
R40 VDPWR.n161 VDPWR.n8 5738.82
R41 VDPWR.n14 VDPWR.n4 5738.82
R42 VDPWR.n11 VDPWR.n4 5738.82
R43 VDPWR.n11 VDPWR.n6 5738.82
R44 VDPWR.n15 VDPWR.n14 5738.82
R45 VDPWR.n160 VDPWR.n16 5738.82
R46 VDPWR.n162 VDPWR.n160 5738.82
R47 VDPWR.n162 VDPWR.n161 5738.82
R48 VDPWR.n142 VDPWR.n141 5738.82
R49 VDPWR.n145 VDPWR.n21 5738.82
R50 VDPWR.n145 VDPWR.n144 5738.82
R51 VDPWR.n144 VDPWR.n139 5738.82
R52 VDPWR.n25 VDPWR.n21 5738.82
R53 VDPWR.n22 VDPWR.n18 5738.82
R54 VDPWR.n140 VDPWR.n22 5738.82
R55 VDPWR.n141 VDPWR.n140 5738.82
R56 VDPWR.n12 VDPWR.n11 2703.53
R57 VDPWR.n161 VDPWR.n12 2703.53
R58 VDPWR.n14 VDPWR.n13 2703.53
R59 VDPWR.n160 VDPWR.n13 2703.53
R60 VDPWR.n144 VDPWR.n27 2703.53
R61 VDPWR.n141 VDPWR.n27 2703.53
R62 VDPWR.n153 VDPWR.n21 2703.53
R63 VDPWR.n153 VDPWR.n22 2703.53
R64 VDPWR.n119 VDPWR.n37 2142.35
R65 VDPWR.n37 VDPWR.n29 2142.35
R66 VDPWR.n135 VDPWR.n30 2142.35
R67 VDPWR.n125 VDPWR.n30 2142.35
R68 VDPWR.n111 VDPWR.n86 2142.35
R69 VDPWR.n111 VDPWR.n85 2142.35
R70 VDPWR.n110 VDPWR.n91 2142.35
R71 VDPWR.n110 VDPWR.n92 2142.35
R72 VDPWR.n129 VDPWR.n36 1644.71
R73 VDPWR.n129 VDPWR.n128 1644.71
R74 VDPWR.n120 VDPWR.n31 1644.71
R75 VDPWR.n121 VDPWR.n120 1644.71
R76 VDPWR.n102 VDPWR.n89 1644.71
R77 VDPWR.n95 VDPWR.n89 1644.71
R78 VDPWR.n101 VDPWR.n90 1644.71
R79 VDPWR.n94 VDPWR.n90 1644.71
R80 VDPWR.n171 VDPWR.n7 752.211
R81 VDPWR.n168 VDPWR.n167 752.211
R82 VDPWR.n151 VDPWR.n143 752.211
R83 VDPWR.n24 VDPWR.n17 752.211
R84 VDPWR.n159 VDPWR.n7 612.141
R85 VDPWR.n167 VDPWR.n166 612.141
R86 VDPWR.n166 VDPWR.n163 612.141
R87 VDPWR.n163 VDPWR.n159 612.141
R88 VDPWR.n147 VDPWR.n143 612.141
R89 VDPWR.n146 VDPWR.n19 612.141
R90 VDPWR.n147 VDPWR.n146 612.141
R91 VDPWR.n24 VDPWR.n19 612.141
R92 VDPWR.n128 VDPWR.n119 497.647
R93 VDPWR.n31 VDPWR.n28 497.647
R94 VDPWR.n36 VDPWR.n28 497.647
R95 VDPWR.n36 VDPWR.n29 497.647
R96 VDPWR.n135 VDPWR.n31 497.647
R97 VDPWR.n125 VDPWR.n121 497.647
R98 VDPWR.n127 VDPWR.n121 497.647
R99 VDPWR.n128 VDPWR.n127 497.647
R100 VDPWR.n95 VDPWR.n86 497.647
R101 VDPWR.n103 VDPWR.n101 497.647
R102 VDPWR.n103 VDPWR.n102 497.647
R103 VDPWR.n102 VDPWR.n85 497.647
R104 VDPWR.n101 VDPWR.n91 497.647
R105 VDPWR.n94 VDPWR.n92 497.647
R106 VDPWR.n96 VDPWR.n94 497.647
R107 VDPWR.n96 VDPWR.n95 497.647
R108 VDPWR.n172 VDPWR.n171 440.687
R109 VDPWR.n168 VDPWR.n158 440.687
R110 VDPWR.n151 VDPWR.n150 440.687
R111 VDPWR.n156 VDPWR.n17 440.687
R112 VDPWR.t4 VDPWR.n87 420.019
R113 VDPWR.t4 VDPWR.n88 420.019
R114 VDPWR.n136 VDPWR.t5 420.019
R115 VDPWR.n126 VDPWR.t5 420.019
R116 VDPWR.n61 VDPWR.t11 342.377
R117 VDPWR.n61 VDPWR.t33 342.375
R118 VDPWR.n49 VDPWR.t29 338.892
R119 VDPWR.n49 VDPWR.t31 338.892
R120 VDPWR.n42 VDPWR.n40 327.377
R121 VDPWR.n55 VDPWR.n43 327.377
R122 VDPWR.n47 VDPWR.n45 327.377
R123 VDPWR.n42 VDPWR.n41 327.375
R124 VDPWR.n55 VDPWR.n44 327.375
R125 VDPWR.n47 VDPWR.n46 327.375
R126 VDPWR.n158 VDPWR.n3 300.435
R127 VDPWR.n174 VDPWR.n3 300.435
R128 VDPWR.n174 VDPWR.n173 300.435
R129 VDPWR.n173 VDPWR.n172 300.435
R130 VDPWR.n156 VDPWR.n155 300.435
R131 VDPWR.n155 VDPWR.n1 300.435
R132 VDPWR.n149 VDPWR.n1 300.435
R133 VDPWR.n150 VDPWR.n149 300.435
R134 VDPWR.n159 VDPWR.n5 288.377
R135 VDPWR.n166 VDPWR.n165 288.377
R136 VDPWR.n148 VDPWR.n147 288.377
R137 VDPWR.n154 VDPWR.n19 288.377
R138 VDPWR.n173 VDPWR.n5 281.976
R139 VDPWR.n165 VDPWR.n3 281.976
R140 VDPWR.n149 VDPWR.n148 281.976
R141 VDPWR.n155 VDPWR.n154 281.976
R142 VDPWR.n73 VDPWR.t24 249.362
R143 VDPWR.n65 VDPWR.t8 249.362
R144 VDPWR.n75 VDPWR.t1 247.394
R145 VDPWR.n68 VDPWR.t19 247.394
R146 VDPWR.n134 VDPWR.n32 228.518
R147 VDPWR.n124 VDPWR.n32 228.518
R148 VDPWR.n117 VDPWR.n34 228.518
R149 VDPWR.n118 VDPWR.n117 228.518
R150 VDPWR.n112 VDPWR.n84 228.518
R151 VDPWR.n112 VDPWR.n83 228.518
R152 VDPWR.n109 VDPWR.n93 228.518
R153 VDPWR.n109 VDPWR.n108 228.518
R154 VDPWR.n133 VDPWR.n33 175.435
R155 VDPWR.n123 VDPWR.n33 175.435
R156 VDPWR.n131 VDPWR.n130 175.435
R157 VDPWR.n130 VDPWR.n35 175.435
R158 VDPWR.n100 VDPWR.n99 175.435
R159 VDPWR.n99 VDPWR.n98 175.435
R160 VDPWR.n106 VDPWR.n105 175.435
R161 VDPWR.n107 VDPWR.n106 175.435
R162 VDPWR.n137 VDPWR.t23 173.055
R163 VDPWR.n88 VDPWR.t7 166.746
R164 VDPWR.n137 VDPWR.t9 123.913
R165 VDPWR VDPWR.t13 109.584
R166 VDPWR VDPWR.n136 107.258
R167 VDPWR.n137 VDPWR 100.95
R168 VDPWR.n108 VDPWR.n92 92.5005
R169 VDPWR.n92 VDPWR.n88 92.5005
R170 VDPWR.n97 VDPWR.n96 92.5005
R171 VDPWR.n96 VDPWR.n88 92.5005
R172 VDPWR.n86 VDPWR.n84 92.5005
R173 VDPWR.n88 VDPWR.n86 92.5005
R174 VDPWR.n85 VDPWR.n83 92.5005
R175 VDPWR.n87 VDPWR.n85 92.5005
R176 VDPWR.n104 VDPWR.n103 92.5005
R177 VDPWR.n103 VDPWR.n87 92.5005
R178 VDPWR.n93 VDPWR.n91 92.5005
R179 VDPWR.n91 VDPWR.n87 92.5005
R180 VDPWR.n125 VDPWR.n124 92.5005
R181 VDPWR.n126 VDPWR.n125 92.5005
R182 VDPWR.n127 VDPWR.n122 92.5005
R183 VDPWR.n127 VDPWR.n126 92.5005
R184 VDPWR.n119 VDPWR.n118 92.5005
R185 VDPWR.n126 VDPWR.n119 92.5005
R186 VDPWR.n34 VDPWR.n29 92.5005
R187 VDPWR.n136 VDPWR.n29 92.5005
R188 VDPWR.n132 VDPWR.n28 92.5005
R189 VDPWR.n136 VDPWR.n28 92.5005
R190 VDPWR.n135 VDPWR.n134 92.5005
R191 VDPWR.n136 VDPWR.n135 92.5005
R192 VDPWR.n78 VDPWR.t6 89.8482
R193 VDPWR.n81 VDPWR.t20 89.8122
R194 VDPWR.n116 VDPWR.t17 84.664
R195 VDPWR.n113 VDPWR.t26 84.664
R196 VDPWR.t7 VDPWR.t18 75.7121
R197 VDPWR.t23 VDPWR.t0 75.7121
R198 VDPWR.t21 VDPWR.n23 73.0334
R199 VDPWR.t21 VDPWR.n138 73.0334
R200 VDPWR.t2 VDPWR.n9 73.0334
R201 VDPWR.t2 VDPWR.n10 73.0334
R202 VDPWR.t18 VDPWR 63.0935
R203 VDPWR.t0 VDPWR 63.0935
R204 VDPWR.n134 VDPWR.n133 53.0829
R205 VDPWR.n124 VDPWR.n123 53.0829
R206 VDPWR.n123 VDPWR.n122 53.0829
R207 VDPWR.n122 VDPWR.n35 53.0829
R208 VDPWR.n133 VDPWR.n132 53.0829
R209 VDPWR.n132 VDPWR.n131 53.0829
R210 VDPWR.n131 VDPWR.n34 53.0829
R211 VDPWR.n118 VDPWR.n35 53.0829
R212 VDPWR.n98 VDPWR.n84 53.0829
R213 VDPWR.n105 VDPWR.n104 53.0829
R214 VDPWR.n104 VDPWR.n100 53.0829
R215 VDPWR.n100 VDPWR.n83 53.0829
R216 VDPWR.n105 VDPWR.n93 53.0829
R217 VDPWR.n108 VDPWR.n107 53.0829
R218 VDPWR.n107 VDPWR.n97 53.0829
R219 VDPWR.n98 VDPWR.n97 53.0829
R220 VDPWR.n164 VDPWR.t28 39.7543
R221 VDPWR.n164 VDPWR.t3 39.7543
R222 VDPWR.n20 VDPWR.t34 39.7543
R223 VDPWR.n20 VDPWR.t36 39.7543
R224 VDPWR.n60 VDPWR.n38 34.6358
R225 VDPWR.n50 VDPWR.n47 31.624
R226 VDPWR.n56 VDPWR.n55 30.8711
R227 VDPWR.n41 VDPWR.t22 26.5955
R228 VDPWR.n41 VDPWR.t15 26.5955
R229 VDPWR.n40 VDPWR.t10 26.5955
R230 VDPWR.n40 VDPWR.t30 26.5955
R231 VDPWR.n44 VDPWR.t14 26.5955
R232 VDPWR.n44 VDPWR.t27 26.5955
R233 VDPWR.n43 VDPWR.t12 26.5955
R234 VDPWR.n43 VDPWR.t25 26.5955
R235 VDPWR.n46 VDPWR.t32 26.5955
R236 VDPWR.n46 VDPWR.t16 26.5955
R237 VDPWR.n45 VDPWR.t35 26.5955
R238 VDPWR.n45 VDPWR.t37 26.5955
R239 VDPWR.n74 VDPWR.n73 25.977
R240 VDPWR.n67 VDPWR.n65 25.977
R241 VDPWR.n55 VDPWR.n54 25.6005
R242 VDPWR.n54 VDPWR.n47 24.8476
R243 VDPWR.n75 VDPWR.n74 24.4711
R244 VDPWR.n68 VDPWR.n67 24.4711
R245 VDPWR.n56 VDPWR.n42 19.577
R246 VDPWR.n50 VDPWR.n49 18.824
R247 VDPWR.n106 VDPWR.n90 16.8187
R248 VDPWR.t4 VDPWR.n90 16.8187
R249 VDPWR.n99 VDPWR.n89 16.8187
R250 VDPWR.t4 VDPWR.n89 16.8187
R251 VDPWR.n112 VDPWR.n111 16.8187
R252 VDPWR.n111 VDPWR.t4 16.8187
R253 VDPWR.n110 VDPWR.n109 16.8187
R254 VDPWR.t4 VDPWR.n110 16.8187
R255 VDPWR.n120 VDPWR.n33 16.8187
R256 VDPWR.n120 VDPWR.t5 16.8187
R257 VDPWR.n130 VDPWR.n129 16.8187
R258 VDPWR.n129 VDPWR.t5 16.8187
R259 VDPWR.n117 VDPWR.n37 16.8187
R260 VDPWR.n37 VDPWR.t5 16.8187
R261 VDPWR.n32 VDPWR.n30 16.8187
R262 VDPWR.n30 VDPWR.t5 16.8187
R263 VDPWR.n137 VDPWR 14.3306
R264 VDPWR.n61 VDPWR.n60 13.5534
R265 VDPWR.n62 VDPWR.n61 11.1829
R266 VDPWR.n138 VDPWR.n137 10.0115
R267 VDPWR.n137 VDPWR.n9 9.53482
R268 VDPWR.n49 VDPWR.n48 9.3005
R269 VDPWR.n51 VDPWR.n50 9.3005
R270 VDPWR.n52 VDPWR.n47 9.3005
R271 VDPWR.n54 VDPWR.n53 9.3005
R272 VDPWR.n55 VDPWR.n39 9.3005
R273 VDPWR.n57 VDPWR.n56 9.3005
R274 VDPWR.n58 VDPWR.n38 9.3005
R275 VDPWR.n60 VDPWR.n59 9.3005
R276 VDPWR.n69 VDPWR.n68 9.3005
R277 VDPWR.n65 VDPWR.n63 9.3005
R278 VDPWR.n67 VDPWR.n66 9.3005
R279 VDPWR.n76 VDPWR.n75 9.3005
R280 VDPWR.n73 VDPWR.n72 9.3005
R281 VDPWR.n74 VDPWR.n71 9.3005
R282 VDPWR.n165 VDPWR.n13 9.2505
R283 VDPWR.t2 VDPWR.n13 9.2505
R284 VDPWR.n12 VDPWR.n5 9.2505
R285 VDPWR.t2 VDPWR.n12 9.2505
R286 VDPWR.n171 VDPWR.n170 9.2505
R287 VDPWR.n170 VDPWR.t2 9.2505
R288 VDPWR.n169 VDPWR.n168 9.2505
R289 VDPWR.t2 VDPWR.n169 9.2505
R290 VDPWR.n152 VDPWR.n151 9.2505
R291 VDPWR.t21 VDPWR.n152 9.2505
R292 VDPWR.n148 VDPWR.n27 9.2505
R293 VDPWR.t21 VDPWR.n27 9.2505
R294 VDPWR.n154 VDPWR.n153 9.2505
R295 VDPWR.n153 VDPWR.t21 9.2505
R296 VDPWR.n26 VDPWR.n17 9.2505
R297 VDPWR.t21 VDPWR.n26 9.2505
R298 VDPWR VDPWR.n176 6.23715
R299 VDPWR.n79 VDPWR.n70 4.51973
R300 VDPWR.n80 VDPWR.n64 4.51973
R301 VDPWR.n82 VDPWR.n81 4.51973
R302 VDPWR.n78 VDPWR.n77 4.51973
R303 VDPWR.n167 VDPWR.n16 4.02224
R304 VDPWR.n16 VDPWR.n10 4.02224
R305 VDPWR.n163 VDPWR.n162 4.02224
R306 VDPWR.n162 VDPWR.n10 4.02224
R307 VDPWR.n8 VDPWR.n7 4.02224
R308 VDPWR.n10 VDPWR.n8 4.02224
R309 VDPWR.n172 VDPWR.n6 4.02224
R310 VDPWR.n9 VDPWR.n6 4.02224
R311 VDPWR.n174 VDPWR.n4 4.02224
R312 VDPWR.n9 VDPWR.n4 4.02224
R313 VDPWR.n158 VDPWR.n15 4.02224
R314 VDPWR.n15 VDPWR.n9 4.02224
R315 VDPWR.n146 VDPWR.n145 4.02224
R316 VDPWR.n145 VDPWR.n23 4.02224
R317 VDPWR.n143 VDPWR.n139 4.02224
R318 VDPWR.n139 VDPWR.n23 4.02224
R319 VDPWR.n25 VDPWR.n24 4.02224
R320 VDPWR.n25 VDPWR.n23 4.02224
R321 VDPWR.n156 VDPWR.n18 4.02224
R322 VDPWR.n138 VDPWR.n18 4.02224
R323 VDPWR.n140 VDPWR.n1 4.02224
R324 VDPWR.n140 VDPWR.n138 4.02224
R325 VDPWR.n150 VDPWR.n142 4.02224
R326 VDPWR.n142 VDPWR.n138 4.02224
R327 VDPWR.n175 VDPWR.n2 2.29309
R328 VDPWR.n42 VDPWR.n38 2.25932
R329 VDPWR.n157 VDPWR 1.28325
R330 VDPWR.n114 VDPWR.n82 1.27487
R331 VDPWR.n2 VDPWR 1.2145
R332 VDPWR.n117 VDPWR.n116 1.20034
R333 VDPWR.n113 VDPWR.n112 1.20034
R334 VDPWR.n157 VDPWR.n0 1.12277
R335 VDPWR.n116 VDPWR.n115 0.771119
R336 VDPWR.n176 VDPWR.n0 0.708833
R337 VDPWR.n80 VDPWR.n79 0.663962
R338 VDPWR.n165 VDPWR.n164 0.489974
R339 VDPWR.n154 VDPWR.n20 0.489974
R340 VDPWR.n79 VDPWR.n78 0.445212
R341 VDPWR.n81 VDPWR.n80 0.442808
R342 VDPWR.n176 VDPWR.n175 0.414434
R343 VDPWR.n114 VDPWR.n113 0.405139
R344 VDPWR.n164 VDPWR.n0 0.40437
R345 VDPWR.n20 VDPWR.n0 0.40437
R346 VDPWR.n115 VDPWR.n114 0.343284
R347 VDPWR.n70 VDPWR 0.28826
R348 VDPWR VDPWR.n62 0.278625
R349 VDPWR.n150 VDPWR.n2 0.216779
R350 VDPWR.n172 VDPWR.n2 0.216779
R351 VDPWR.n157 VDPWR.n156 0.216779
R352 VDPWR.n175 VDPWR.n1 0.216779
R353 VDPWR.n158 VDPWR.n157 0.216779
R354 VDPWR.n175 VDPWR.n174 0.216779
R355 VDPWR.n66 VDPWR.n63 0.120292
R356 VDPWR.n72 VDPWR.n71 0.120292
R357 VDPWR.n77 VDPWR.n71 0.112479
R358 VDPWR.n66 VDPWR.n64 0.108573
R359 VDPWR.n59 VDPWR.n58 0.0963333
R360 VDPWR.n58 VDPWR.n57 0.0963333
R361 VDPWR.n57 VDPWR.n39 0.0963333
R362 VDPWR.n53 VDPWR.n39 0.0963333
R363 VDPWR.n53 VDPWR.n52 0.0963333
R364 VDPWR.n52 VDPWR.n51 0.0963333
R365 VDPWR.n51 VDPWR.n48 0.0963333
R366 VDPWR.n59 VDPWR 0.078625
R367 VDPWR.n115 VDPWR 0.0505
R368 VDPWR.n48 VDPWR 0.0484167
R369 VDPWR VDPWR.n69 0.0239375
R370 VDPWR.n76 VDPWR 0.0239375
R371 VDPWR.n62 VDPWR 0.0182083
R372 VDPWR.n82 VDPWR.n63 0.0122188
R373 VDPWR.n69 VDPWR.n64 0.0122188
R374 VDPWR.n72 VDPWR.n70 0.00961458
R375 VDPWR.n77 VDPWR.n76 0.0083125
R376 tdc_0.phase_detector_0.sky130_fd_sc_hd__nand2_1_0.B.n2 tdc_0.phase_detector_0.sky130_fd_sc_hd__nand2_1_0.B.t5 717.539
R377 tdc_0.phase_detector_0.sky130_fd_sc_hd__nand2_1_0.B.n2 tdc_0.phase_detector_0.sky130_fd_sc_hd__nand2_1_0.B.t4 382.024
R378 tdc_0.phase_detector_0.sky130_fd_sc_hd__nand2_1_0.B.n1 tdc_0.phase_detector_0.sky130_fd_sc_hd__nand2_1_0.B.t3 229.369
R379 tdc_0.phase_detector_0.sky130_fd_sc_hd__nand2_1_0.B.n1 tdc_0.phase_detector_0.sky130_fd_sc_hd__nand2_1_0.B.t6 157.07
R380 tdc_0.phase_detector_0.sky130_fd_sc_hd__nand2_1_0.B.n4 tdc_0.phase_detector_0.sky130_fd_sc_hd__nand2_1_0.B.n1 152
R381 tdc_0.phase_detector_0.sky130_fd_sc_hd__nand2_1_0.B.n0 tdc_0.phase_detector_0.sky130_fd_sc_hd__nand2_1_0.B.t2 99.4459
R382 tdc_0.phase_detector_0.sky130_fd_sc_hd__nand2_1_0.B.n3 tdc_0.phase_detector_0.sky130_fd_sc_hd__nand2_1_0.B.t0 84.4033
R383 tdc_0.phase_detector_0.sky130_fd_sc_hd__nand2_1_0.B.n3 tdc_0.phase_detector_0.sky130_fd_sc_hd__nand2_1_0.B.t1 84.3461
R384 tdc_0.phase_detector_0.sky130_fd_sc_hd__nand2_1_0.B.n4 tdc_0.phase_detector_0.sky130_fd_sc_hd__nand2_1_0.B.n0 13.9367
R385 tdc_0.phase_detector_0.sky130_fd_sc_hd__nand2_1_0.B.n0 tdc_0.phase_detector_0.sky130_fd_sc_hd__nand2_1_0.B.n2 8.31548
R386 tdc_0.phase_detector_0.sky130_fd_sc_hd__nand2_1_0.B.n0 tdc_0.phase_detector_0.sky130_fd_sc_hd__nand2_1_0.B.n3 6.2204
R387 tdc_0.phase_detector_0.sky130_fd_sc_hd__nand2_1_0.B tdc_0.phase_detector_0.sky130_fd_sc_hd__nand2_1_0.B.n4 5.92643
R388 uo_out[1].n5 uo_out[1].t1 271.209
R389 uo_out[1].n4 uo_out[1].t1 258.846
R390 uo_out[1].n0 uo_out[1].t4 229.369
R391 uo_out[1] uo_out[1].n2 224.778
R392 uo_out[1].n0 uo_out[1].t3 157.07
R393 uo_out[1].n1 uo_out[1].n0 152
R394 uo_out[1].n7 uo_out[1] 33.4599
R395 uo_out[1].n2 uo_out[1].t2 26.5955
R396 uo_out[1].n2 uo_out[1].t0 26.5955
R397 uo_out[1].n6 uo_out[1].n1 10.0773
R398 uo_out[1].n6 uo_out[1].n5 9.3005
R399 uo_out[1].n1 uo_out[1] 5.92643
R400 uo_out[1] uo_out[1].n6 5.41118
R401 uo_out[1].n3 uo_out[1] 3.76521
R402 uo_out[1].n4 uo_out[1].n3 3.03935
R403 uo_out[1] uo_out[1].n4 2.30266
R404 uo_out[1].n7 uo_out[1] 1.68191
R405 uo_out[1].n3 uo_out[1] 0.921363
R406 uo_out[1].n5 uo_out[1] 0.829277
R407 uo_out[1] uo_out[1].n7 0.0712071
R408 tdc_0.sky130_fd_sc_hd__inv_8_0.A.n14 tdc_0.sky130_fd_sc_hd__inv_8_0.A.t10 212.081
R409 tdc_0.sky130_fd_sc_hd__inv_8_0.A.n13 tdc_0.sky130_fd_sc_hd__inv_8_0.A.t9 212.081
R410 tdc_0.sky130_fd_sc_hd__inv_8_0.A.n1 tdc_0.sky130_fd_sc_hd__inv_8_0.A.t8 212.081
R411 tdc_0.sky130_fd_sc_hd__inv_8_0.A.n10 tdc_0.sky130_fd_sc_hd__inv_8_0.A.t4 212.081
R412 tdc_0.sky130_fd_sc_hd__inv_8_0.A.n2 tdc_0.sky130_fd_sc_hd__inv_8_0.A.t3 212.081
R413 tdc_0.sky130_fd_sc_hd__inv_8_0.A.n7 tdc_0.sky130_fd_sc_hd__inv_8_0.A.t14 212.081
R414 tdc_0.sky130_fd_sc_hd__inv_8_0.A.n5 tdc_0.sky130_fd_sc_hd__inv_8_0.A.t13 212.081
R415 tdc_0.sky130_fd_sc_hd__inv_8_0.A.n3 tdc_0.sky130_fd_sc_hd__inv_8_0.A.t6 212.081
R416 tdc_0.sky130_fd_sc_hd__inv_8_0.A.n4 tdc_0.sky130_fd_sc_hd__inv_8_0.A 171.969
R417 tdc_0.sky130_fd_sc_hd__inv_8_0.A.n6 tdc_0.sky130_fd_sc_hd__inv_8_0.A 152
R418 tdc_0.sky130_fd_sc_hd__inv_8_0.A tdc_0.sky130_fd_sc_hd__inv_8_0.A.n8 152
R419 tdc_0.sky130_fd_sc_hd__inv_8_0.A.n9 tdc_0.sky130_fd_sc_hd__inv_8_0.A 152
R420 tdc_0.sky130_fd_sc_hd__inv_8_0.A.n0 tdc_0.sky130_fd_sc_hd__inv_8_0.A.n11 152
R421 tdc_0.sky130_fd_sc_hd__inv_8_0.A.n12 tdc_0.sky130_fd_sc_hd__inv_8_0.A 152
R422 tdc_0.sky130_fd_sc_hd__inv_8_0.A tdc_0.sky130_fd_sc_hd__inv_8_0.A.n15 152
R423 tdc_0.sky130_fd_sc_hd__inv_8_0.A.n14 tdc_0.sky130_fd_sc_hd__inv_8_0.A.t16 139.78
R424 tdc_0.sky130_fd_sc_hd__inv_8_0.A.n13 tdc_0.sky130_fd_sc_hd__inv_8_0.A.t15 139.78
R425 tdc_0.sky130_fd_sc_hd__inv_8_0.A.n1 tdc_0.sky130_fd_sc_hd__inv_8_0.A.t12 139.78
R426 tdc_0.sky130_fd_sc_hd__inv_8_0.A.n10 tdc_0.sky130_fd_sc_hd__inv_8_0.A.t7 139.78
R427 tdc_0.sky130_fd_sc_hd__inv_8_0.A.n2 tdc_0.sky130_fd_sc_hd__inv_8_0.A.t5 139.78
R428 tdc_0.sky130_fd_sc_hd__inv_8_0.A.n7 tdc_0.sky130_fd_sc_hd__inv_8_0.A.t2 139.78
R429 tdc_0.sky130_fd_sc_hd__inv_8_0.A.n5 tdc_0.sky130_fd_sc_hd__inv_8_0.A.t17 139.78
R430 tdc_0.sky130_fd_sc_hd__inv_8_0.A.n3 tdc_0.sky130_fd_sc_hd__inv_8_0.A.t11 139.78
R431 tdc_0.sky130_fd_sc_hd__inv_8_0.A tdc_0.sky130_fd_sc_hd__inv_8_0.A.n0 43.0085
R432 tdc_0.sky130_fd_sc_hd__inv_8_0.A tdc_0.sky130_fd_sc_hd__inv_8_0.A.t0 42.6438
R433 tdc_0.sky130_fd_sc_hd__inv_8_0.A tdc_0.sky130_fd_sc_hd__inv_8_0.A.t1 39.7543
R434 tdc_0.sky130_fd_sc_hd__inv_8_0.A.n4 tdc_0.sky130_fd_sc_hd__inv_8_0.A.n3 30.6732
R435 tdc_0.sky130_fd_sc_hd__inv_8_0.A.n5 tdc_0.sky130_fd_sc_hd__inv_8_0.A.n4 30.6732
R436 tdc_0.sky130_fd_sc_hd__inv_8_0.A.n6 tdc_0.sky130_fd_sc_hd__inv_8_0.A.n5 30.6732
R437 tdc_0.sky130_fd_sc_hd__inv_8_0.A.n7 tdc_0.sky130_fd_sc_hd__inv_8_0.A.n6 30.6732
R438 tdc_0.sky130_fd_sc_hd__inv_8_0.A.n8 tdc_0.sky130_fd_sc_hd__inv_8_0.A.n7 30.6732
R439 tdc_0.sky130_fd_sc_hd__inv_8_0.A.n8 tdc_0.sky130_fd_sc_hd__inv_8_0.A.n2 30.6732
R440 tdc_0.sky130_fd_sc_hd__inv_8_0.A.n9 tdc_0.sky130_fd_sc_hd__inv_8_0.A.n2 30.6732
R441 tdc_0.sky130_fd_sc_hd__inv_8_0.A.n10 tdc_0.sky130_fd_sc_hd__inv_8_0.A.n9 30.6732
R442 tdc_0.sky130_fd_sc_hd__inv_8_0.A.n11 tdc_0.sky130_fd_sc_hd__inv_8_0.A.n10 30.6732
R443 tdc_0.sky130_fd_sc_hd__inv_8_0.A.n11 tdc_0.sky130_fd_sc_hd__inv_8_0.A.n1 30.6732
R444 tdc_0.sky130_fd_sc_hd__inv_8_0.A.n12 tdc_0.sky130_fd_sc_hd__inv_8_0.A.n1 30.6732
R445 tdc_0.sky130_fd_sc_hd__inv_8_0.A.n13 tdc_0.sky130_fd_sc_hd__inv_8_0.A.n12 30.6732
R446 tdc_0.sky130_fd_sc_hd__inv_8_0.A.n15 tdc_0.sky130_fd_sc_hd__inv_8_0.A.n13 30.6732
R447 tdc_0.sky130_fd_sc_hd__inv_8_0.A.n15 tdc_0.sky130_fd_sc_hd__inv_8_0.A.n14 30.6732
R448 tdc_0.sky130_fd_sc_hd__inv_8_0.A.n0 tdc_0.sky130_fd_sc_hd__inv_8_0.A 26.6304
R449 tdc_0.sky130_fd_sc_hd__inv_8_0.Y.t17 tdc_0.sky130_fd_sc_hd__inv_8_0.Y.t16 1119.58
R450 tdc_0.sky130_fd_sc_hd__inv_8_0.Y.n0 tdc_0.sky130_fd_sc_hd__inv_8_0.Y.t17 731.562